Circuit: * D:\Julien\Documents\INSA 4A\S2\Capteurs\Circuits LTSpice\Ampli transimpédance.asc

Direct Newton iteration for .op point succeeded.

Date: Thu Feb 16 11:41:58 2023
Total elapsed time: 0.396 seconds.

tnom = 27
temp = 27
method = modified trap
totiter = 49380
traniter = 49344
tranpoints = 24673
accept = 16269
rejected = 8404
matrix size = 16
fillins = 12
solver = Normal
Avg thread counts: 1.0/1.0/1.0/1.0
Matrix Compiler1: 1.12 KB object code size  0.8/0.6/[0.3]
Matrix Compiler2: 1.46 KB object code size  0.4/0.7/[0.3]

